
Spectre (R) Circuit Simulator
Version 20.1.0.073.isr1 64bit -- 14 Oct 2020
Copyright (C) 1989-2020 Cadence Design Systems, Inc. All rights reserved worldwide. Cadence and Spectre are registered trademarks of Cadence Design Systems, Inc. All others are the property of their respective holders.

Includes RSA BSAFE(R) Cryptographic or Security Protocol Software from RSA Security, Inc.

User: zahr   Host: icelab-23   HostID: E289BE5A   PID: 18109
Memory  available: 55.1677 GB  physical: 67.3571 GB
Linux   : CentOS Linux release 7.9.2009 (Core)
CPU Type: AMD Ryzen 9 3900X 12-Core Processor
        Socket: Processors [Frequency] (Hyperthreaded Processor)
        0:       0 [2200.0] (),  1 [2200.0] (),  2 [2200.0] (),  3 [2200.0] (),  4 [2200.0] ()
                 5 [2200.0] (),  6 [2200.0] (),  7 [2200.0] (),  8 [2200.0] (),  9 [2200.0] ()
                10 [2200.0] (), 11 [2200.0] (), 12 [2200.0] (), 13 [2800.0] (), 14 [2200.0] ()
                15 [2200.0] (), 16 [2200.0] (), 17 [3800.0] (), 18 [3800.0] (), 19 [3800.0] ()
                20 [2200.0] (), 21 [2200.0] (), 22 [2200.0] (), 23 [2200.0] ()
        
System load averages (1min, 5min, 15min) : 4.8 %, 3.0 %, 1.7 %
Hyperthreading is enabled


Simulating `netlist.scs' on icelab-23 at 2:45:40 PM, Fri Feb 11, 2022 (process id: 18109).
Current working directory: /net/home/zahr/Documents/Gitlab/auto-spice
Command line:
     \
        /net/sw/cadence/2020-21/RHELx86/SPECTRE_20.10.073/tools.lnx86/bin/spectre  \
        -64 netlist.scs

Loading /net/sw/cadence/2020-21/RHELx86/SPECTRE_20.10.073/tools.lnx86/cmi/lib/64bit/5.0/libinfineon_sh.so ...
Loading /net/sw/cadence/2020-21/RHELx86/SPECTRE_20.10.073/tools.lnx86/cmi/lib/64bit/5.0/libphilips_o_sh.so ...
Loading /net/sw/cadence/2020-21/RHELx86/SPECTRE_20.10.073/tools.lnx86/cmi/lib/64bit/5.0/libphilips_sh.so ...
Loading /net/sw/cadence/2020-21/RHELx86/SPECTRE_20.10.073/tools.lnx86/cmi/lib/64bit/5.0/libsparam_sh.so ...
Loading /net/sw/cadence/2020-21/RHELx86/SPECTRE_20.10.073/tools.lnx86/cmi/lib/64bit/5.0/libstmodels_sh.so ...
Reading file:  /net/home/zahr/Documents/Gitlab/auto-spice/netlist.scs
Reading file:  /net/sw/cadence/2020-21/RHELx86/SPECTRE_20.10.073/tools.lnx86/spectre/etc/configs/spectre.cfg
Reading file:  /net/home/zahr/Documents/Gitlab/auto-spice/deps/JART-memristor-models/JART_VCM_v1b.va
Reading file:  /net/sw/cadence/2020-21/RHELx86/SPECTRE_20.10.073/tools.lnx86/spectre/etc/ahdl/constants.vams
Reading file:  /net/sw/cadence/2020-21/RHELx86/SPECTRE_20.10.073/tools.lnx86/spectre/etc/ahdl/disciplines.vams
Time for NDB Parsing: CPU = 63.045 ms, elapsed = 153.331 ms.
Time accumulated: CPU = 115.507 ms, elapsed = 153.338 ms.
Peak resident memory used = 62.9 Mbytes.

Existing shared object for module JART_VCM_1b_det is up to date.
Installed compiled interface for JART_VCM_1b_det.

Warning from spectre in `my_ckt':`XBAR', during hierarchy flattening.
    WARNING (SFE-30): "netlist.scs" 3: Parameter `phibn0', specified for primitive `JART_VCM_1b_det', has been ignored because it is an invalid instance parameter. Specify a valid instance parameter and rerun the simulation. Type `spectre -h JART_VCM_1b_det' to get more information on valid instance parameters.
    WARNING (SFE-30): "netlist.scs" 3: Parameter `nyo', specified for primitive `JART_VCM_1b_det', has been ignored because it is an invalid instance parameter. Specify a valid instance parameter and rerun the simulation. Type `spectre -h JART_VCM_1b_det' to get more information on valid instance parameters.
    WARNING (SFE-30): "netlist.scs" 3: Parameter `rnew', specified for primitive `JART_VCM_1b_det', has been ignored because it is an invalid instance parameter. Specify a valid instance parameter and rerun the simulation. Type `spectre -h JART_VCM_1b_det' to get more information on valid instance parameters.
    WARNING (SFE-30): "netlist.scs" 3: Parameter `lnew', specified for primitive `JART_VCM_1b_det', has been ignored because it is an invalid instance parameter. Specify a valid instance parameter and rerun the simulation. Type `spectre -h JART_VCM_1b_det' to get more information on valid instance parameters.
    WARNING (SFE-30): "netlist.scs" 3: Parameter `RTiOx', specified for primitive `JART_VCM_1b_det', has been ignored because it is an invalid instance parameter. Specify a valid instance parameter and rerun the simulation. Type `spectre -h JART_VCM_1b_det' to get more information on valid instance parameters.
        Further occurrences of this warning will be suppressed.
    WARNING (SFE-29): "netlist.scs" 3: Cannot set parameter `eps_eff'.
    WARNING (SFE-29): "netlist.scs" 3: Cannot set parameter `epsphib_eff'.

Time for Elaboration: CPU = 16.77 ms, elapsed = 17.977 ms.
Time accumulated: CPU = 132.391 ms, elapsed = 171.448 ms.
Peak resident memory used = 69.9 Mbytes.


Time for EDB Visiting: CPU = 396 us, elapsed = 396.013 us.
Time accumulated: CPU = 132.892 ms, elapsed = 171.949 ms.
Peak resident memory used = 70.6 Mbytes.


Notice from spectre during initial setup.
    Ignorevaref=yes is ignored since all nodes are connected to Verilog-A modules.


Global user options:
            vabstol = 1e-06
            iabstol = 1e-12
               temp = 27
               gmin = 1e-12
               save = all
           currents = all
       saveahdlvars = all
               tnom = 27

Scoped user options:

Circuit inventory:
              nodes 2
    JART_VCM_1b_det 1     
            vsource 2     

Analysis and control statement inventory:
               tran 1     

Output statements:
             .probe 0     
           .measure 0     
               save 1     

Time for parsing: CPU = 1.52 ms, elapsed = 3.39603 ms.
Time accumulated: CPU = 134.503 ms, elapsed = 175.435 ms.
Peak resident memory used = 72 Mbytes.

~~~~~~~~~~~~~~~~~~~~~~
Pre-Simulation Summary
~~~~~~~~~~~~~~~~~~~~~~
~~~~~~~~~~~~~~~~~~~~~~

*************************************************
Transient Analysis `trans': time = (0 s -> 10 ms)
*************************************************
DC simulation time: CPU = 253 us, elapsed = 252.962 us.

Opening the PSFXL file netlist.raw/trans.tran.tran ...
Important parameter values:
    start = 0 s
    outputstart = 0 s
    stop = 10 ms
    step = 10 us
    maxstep = 1 us
    ic = all
    useprevic = no
    skipdc = no
    reltol = 100e-06
    abstol(V) = 1 uV
    abstol(I) = 1 pA
    temp = 27 C
    tnom = 27 C
    tempeffects = all
    errpreset = conservative
    method = gear2only
    lteratio = 10
    relref = alllocal
    cmin = 0 F
    gmin = 1 pS


Output and IC/nodeset summary:
                 save   10      (current)
                 save   9       (voltage)
                 others 21      

    trans: time = 250 us       (2.5 %), step = 41.94 ns     (419 u%)
    trans: time = 750 us       (7.5 %), step = 41.94 ns     (419 u%)
    trans: time = 1.25 ms     (12.5 %), step = 25 ns        (250 u%)
    trans: time = 1.75 ms     (17.5 %), step = 41.94 ns     (419 u%)
    trans: time = 2.25 ms     (22.5 %), step = 41.94 ns     (419 u%)
    trans: time = 2.75 ms     (27.5 %), step = 25 ns        (250 u%)
    trans: time = 3.25 ms     (32.5 %), step = 25 ns        (250 u%)
    trans: time = 3.75 ms     (37.5 %), step = 41.94 ns     (419 u%)
    trans: time = 4.25 ms     (42.5 %), step = 25 ns        (250 u%)
    trans: time = 4.75 ms     (47.5 %), step = 41.94 ns     (419 u%)
    trans: time = 5.25 ms     (52.5 %), step = 25 ns        (250 u%)
    trans: time = 5.75 ms     (57.5 %), step = 25 ns        (250 u%)
    trans: time = 6.25 ms     (62.5 %), step = 25 ns        (250 u%)
    trans: time = 6.75 ms     (67.5 %), step = 25 ns        (250 u%)
    trans: time = 7.25 ms     (72.5 %), step = 41.94 ns     (419 u%)
    trans: time = 7.75 ms     (77.5 %), step = 25 ns        (250 u%)
    trans: time = 8.25 ms     (82.5 %), step = 41.94 ns     (419 u%)
